121
E:\factorTest00\mol_files\0_1.mol2
O          6.07320        2.45610        0.53990
O          7.15190        1.64760        1.61200
O          4.85940        1.80360        0.47560
O          6.10020        3.61190       -0.27880
O          5.94610        0.43220        1.97010
O          4.78000        0.64860        1.29020
O          3.72830        2.57910       -0.58810
O          4.90770        3.79810       -0.96400
O          7.23000        4.84930       -0.65710
O          4.90660        4.93890       -1.79970
O          6.08820        5.61180       -1.73140
O          6.12440       -2.45610       -0.53990
O          5.04570       -1.64760       -1.61200
O          7.33820       -1.80360       -0.47560
O          6.09740       -3.61190        0.27880
O          6.25150       -0.43220       -1.97010
O          7.41760       -0.64860       -1.29020
O          8.46930       -2.57920        0.58810
O          7.28990       -3.79810        0.96400
O          4.96760       -4.84930        0.65710
O          7.29100       -4.93890        1.79970
O          6.10940       -5.61180        1.73140
O         12.17200        2.45610        0.53990
O         13.25070        1.64760        1.61200
O         10.95820        1.80360        0.47560
O         12.19900        3.61190       -0.27880
O         12.04490        0.43220        1.97010
O         10.87880        0.64860        1.29020
O          9.82710        2.57910       -0.58810
O         11.00650        3.79810       -0.96400
O         13.32880        4.84930       -0.65710
O         11.00540        4.93890       -1.79970
O         12.18700        5.61180       -1.73140
O         -0.02560        2.45610        0.53990
O          1.05310        1.64760        1.61200
O         -1.23940        1.80360        0.47560
O          0.00140        3.61190       -0.27880
O         -0.15270        0.43220        1.97010
O         -1.31880        0.64860        1.29020
O         -2.37050        2.57910       -0.58810
O         -1.19110        3.79810       -0.96400
O          1.13120        4.84930       -0.65710
O         -1.19220        4.93890       -1.79970
O         -0.01060        5.61180       -1.73140
O          5.58690       10.12890       -0.53990
O          4.50810       10.93730       -1.61200
O          6.80070       10.78140       -0.47560
O          5.55980        8.97300        0.27880
O          5.71400       12.15280       -1.97010
O          6.88000       11.93630       -1.29020
O          7.93170       10.00580        0.58810
O          6.75230        8.78680        0.96400
O          4.43000        7.73560        0.65710
O          6.75340        7.64610        1.79970
O          5.57180        6.97310        1.73140
O          0.02560       -2.45610       -0.53990
O         -1.05310       -1.64760       -1.61200
O          1.23940       -1.80360       -0.47560
O         -0.00140       -3.61190        0.27880
O          0.15270       -0.43220       -1.97010
O          1.31880       -0.64860       -1.29020
O          2.37050       -2.57920        0.58810
O          1.19110       -3.79810        0.96400
O         -1.13120       -4.84930        0.65710
O          1.19220       -4.93890        1.79970
O          0.01060       -5.61180        1.73140
O         -0.51190       10.12890       -0.53990
O         -1.59070       10.93730       -1.61200
O          0.70190       10.78140       -0.47560
O         -0.53900        8.97300        0.27880
O         -0.38480       12.15280       -1.97010
O          0.78120       11.93630       -1.29020
O          1.83290       10.00580        0.58810
O          0.65350        8.78680        0.96400
O         -1.66880        7.73560        0.65710
O          0.65460        7.64610        1.79970
O         -0.52700        6.97310        1.73140
O         12.22320       -2.45610       -0.53990
O         11.14450       -1.64760       -1.61200
O         13.43700       -1.80360       -0.47560
O         12.19620       -3.61190        0.27880
O         12.35030       -0.43220       -1.97010
O         13.51640       -0.64860       -1.29020
O         14.56810       -2.57920        0.58810
O         13.38870       -3.79810        0.96400
O         11.06640       -4.84930        0.65710
O         13.38980       -4.93890        1.79970
O         12.20820       -5.61180        1.73140
O         11.68570       10.12890       -0.53990
O         10.60690       10.93730       -1.61200
O         12.89950       10.78140       -0.47560
O         11.65860        8.97300        0.27880
O         11.81280       12.15280       -1.97010
O         12.97880       11.93630       -1.29020
O         14.03050       10.00580        0.58810
O         12.85110        8.78680        0.96400
O         10.52880        7.73560        0.65710
O         12.85220        7.64610        1.79970
O         11.67060        6.97310        1.73140
O         18.27080        2.45610        0.53990
O         19.34950        1.64760        1.61200
O         17.05700        1.80360        0.47560
O         18.29780        3.61190       -0.27880
O         18.14370        0.43220        1.97010
O         16.97760        0.64860        1.29020
O         15.92590        2.57910       -0.58810
O         17.10540        3.79810       -0.96400
O         19.42760        4.84930       -0.65710
O         17.10420        4.93890       -1.79970
O         18.28580        5.61180       -1.73140
O         -6.12440        2.45610        0.53990
O         -5.04570        1.64760        1.61200
O         -7.33820        1.80360        0.47560
O         -6.09740        3.61190       -0.27880
O         -6.25150        0.43220        1.97010
O         -7.41760        0.64860        1.29020
O         -8.46930        2.57910       -0.58810
O         -7.28990        3.79810       -0.96400
O         -4.96760        4.84930       -0.65710
O         -7.29100        4.93890       -1.79970
O         -6.10940        5.61180       -1.73140
